$DATA1 SOURCE='HSPICE' VERSION='P-2019.06-SP1-1 win64' PARAM_COUNT=0
.TITLE 'cmos_inverter'
 stpow            temper           alter#          
  1.796e-09         25.0000        1               
